[TITLE]
;;Project Title/Notes

[OPTIONS]
;;Option             Value
FLOW_UNITS           CFS
INFILTRATION         HORTON
FLOW_ROUTING         KINWAVE
LINK_OFFSETS         ELEVATION
MIN_SLOPE            0
ALLOW_PONDING        NO
SKIP_STEADY_STATE    NO

START_DATE           04/27/2017
START_TIME           00:00:00
REPORT_START_DATE    04/27/2017
REPORT_START_TIME    00:00:00
END_DATE             04/27/2017
END_TIME             12:00:00
SWEEP_START          01/01
SWEEP_END            12/31
DRY_DAYS             0
REPORT_STEP          00:20:00
WET_STEP             00:30:00
DRY_STEP             01:00:00
ROUTING_STEP         0:01:00 
RULE_STEP            00:00:00

INERTIAL_DAMPING     PARTIAL
NORMAL_FLOW_LIMITED  BOTH
FORCE_MAIN_EQUATION  D-W
VARIABLE_STEP        0.75
LENGTHENING_STEP     0
MIN_SURFAREA         12.557
MAX_TRIALS           8
HEAD_TOLERANCE       0.005
SYS_FLOW_TOL         5
LAT_FLOW_TOL         5
MINIMUM_STEP         0.5
THREADS              1

[EVAPORATION]
;;Data Source    Parameters
;;-------------- ----------------
CONSTANT         0.0
DRY_ONLY         NO

[JUNCTIONS]
;;Name           Elevation  MaxDepth   InitDepth  SurDepth   Aponded   
;;-------------- ---------- ---------- ---------- ---------- ----------
149000000        147.6      83.9       0.2451     0          0         
200000000        70         12.7       0.2456     0          0         
201000000        70.2       29.4       0.481      0          0         
202000000        70.6       33         0.401      0          0         
203000000        95.8       12.2       0.4        0          0         
204000000        96         14.1       0.395      0          0         
205000000        96.1       18.1       0.396      0          0         
206000000        96.2       18         0.398      0          0         
207000000        96.3       22         0.399      0          0         
208000000        96.4       24.1       0.397      0          0         
209000000        96.5       26.2       0.402      0          0         
210000000        96.65      26.2       0.403      0          0         
211000000        96.7       28.3       0.405      0          0         
212000000        96.9       32.6       0.404      0          0         
213000000        97         32.7       0.303      0          0         
214000000        97.1       30.8       0.418      0          0         
215000000        97.2       30.1       0.304      0          0         
216000000        97.7       9.3        0.302      0          0         
217000000        97.9       9.5        0.301      0          0         
218000000        98         7.4        0.343      0          0         
219000000        98.2       7.8        0.3        0          0         
221000000        98.6       6.1        0.327      0          0         
221000001        98.4       5.7        0.299      0          0         
222000000        99         22.3       0.298      0          0         
223000000        99.2       22.4       0.297      0          0         
224000000        99.4       19.8       0.29       0          0         
225000000        114.7      6.9        0.289      0          0         
226000000        117.7      6.2        0.288      0          0         
227000000        119.8      6.4        0.287      0          0         
228000000        119.9      6.2        0.286      0          0         
229000000        120        8.4        0.285      0          0         
230000000        120.1      10.5       0.284      0          0         
231000000        120.2      12.7       0.283      0          0         
232000000        120.3      14.8       0.282      0          0         
233000000        120.3      14.8       0.281      0          0         
234000000        120.4      16.9       0.28       0          0         
235000000        120.6      18.8       0.27       0          0         
236000000        120.9      27.8       0.266      0          0         
237000000        121        30.2       0.264      0          0         
238000000        121.1      32.4       0.265      0          0         
240000000        121.2      34.5       0.263      0          0         
241000000        121.3      36.9       0.262      0          0         
242000000        154.2      8.8        0.252      0          0         
243000000        154.3      11         0.251      0          0         
244000000        154.4      15.6       0.25       0          0         
245000000        154.5      18         0.249      0          0         
246000000        154.6      20.3       0.248      0          0         
247000000        154.7      22.5       0.247      0          0         
248000000        154.9      27.2       0.246      0          0         
249000000        155        29.5       0.245      0          0         
250000000        155.2      34.2       0.243      0          0         
251000000        155.3      34         0.242      0          0         
252000000        155.5      33.3       0.24       0          0         
252010000        155.7      6.9        0.241      0          0         
300000000        71.11      9.6        0.492      0          0         
301000000        71.2       10         0.572      0          0         
302000000        71.4       11.3       0.489      0          0         
303000000        71.5       10.9       0.461      0          0         
304000000        71.6       9.9        0.46       0          0         
305000000        71.7       9.7        0.459      0          0         
306000000        71.7       9.5        0.458      0          0         
307000000        71.8       8.7        0.431      0          0         
308000000        71.9       8.5        0.457      0          0         
309000000        72         8.3        0.456      0          0         
310000000        72.2       7.8        0.455      0          0         
311000000        72.3       7.7        0.432      0          0         
400000000        71.3       8.7        0.577      0          0         
500000000        69.6       10.4       0.639      0          0         
600000000        67.6       14.7       0.962      0          0         
701000000        72.3       7.7        0.1191     0          0         
807000100        71.3       9.4        0.3815     0          0         
900000000        71.3       18.2       0.1383     0          0         
1000000000       74.5       64.3       0.1478     0          0         
1100000000       68.7       11.3       0.1917     0          0         
1102010000       68.9       11.1       0.1959     0          0         
1102020000       69         6          0          0          0         
1102030000       69.2       10.8       0.1957     0          0         
1102040000       69.2       10.8       0.1954     0          0         
1102040400       69.4       10.1       0.1915     0          0         
1102050000       69.5       10.5       0.1953     0          0         
1102060000       69.7       10.5       0.1952     0          0         
1102070000       69.8       10.5       0.192      0          0         
1102080000       70         10.3       0.1948     0          0         
1102090000       70.2       10.2       0.1947     0          0         
1102100000       70.3       10.2       0.1918     0          0         
1102110000       70.4       10.2       0.1945     0          0         
1102120000       70.7       10.2       0.1944     0          0         
1102130000       70.7       10.1       0.1921     0          0         
1102140000       70.9       9.8        0.194      0          0         
1102150000       71         9.7        0.1939     0          0         
1102160000       71.2       9.6        0.1922     0          0         
1102170000       71.4       9.5        0.1938     0          0         
1102180000       71.6       8.9        0.1937     0          0         
1102190000       71.6       8.9        0.1923     0          0         
1102200000       71.7       8.8        0.1928     0          0         
1102210000       71.9       8.4        0.1929     0          0         
1102220000       72.1       7.9        0.193      0          0         
1102230000       72.5       7.5        0.1926     0          0         
1102240000       72.8       7.2        0.1931     0          0         
1102250000       72.9       7.1        0.1932     0          0         
1102260000       73.1       6.9        0.1925     0          0         
1102270000       73.3       6.7        0.1933     0          0         
1102280000       73.5       6.7        0.1924     0          0         
1102290000       74.6       6.1        0.1934     0          0         
1102300000       74.7       6.7        0.1935     0          0         
1102310000       75         6.2        0.1936     0          0         
1103000000       69.7       10.2       0.1968     0          0         
1103010000       69.8       10.2       0.1969     0          0         
1103020000       70.1       9.9        0.197      0          0         
1103030000       70.2       9.8        0.1971     0          0         
1103040000       70.4       9.6        0.1972     0          0         
1103050000       70.5       9.5        0.1973     0          0         
1103060000       70.6       9.4        0.1974     0          0         
1103070000       70.7       9.3        0.1975     0          0         
1103080000       70.8       9.2        0.1976     0          0         
1103090000       71         9          0.1911     0          0         
1103100000       71         9          0.1977     0          0         
1103110000       71.2       8.8        0.1986     0          0         
1103120000       71.3       8.7        0.1987     0          0         
1103130000       71.6       8.4        0.1909     0          0         
1103130100       71.8       8.2        0.1988     0          0         
1103130200       71.9       8.1        0.1989     0          0         
1103130300       72         8          0.199      0          0         
1103130400       72.2       7.8        0.1991     0          0         
1103130500       72.4       9.1        0.1992     0          0         
1103130600       77.5       6          0.191      0          0         
1200000000       69         12         0.2205     0          0         
1201010000       72.1       7.9        0.2207     0          0         
1201020000       72.3       7.7        0.2206     0          0         
1201030000       72.3       7.7        0.2208     0          0         
1201040000       72.4       7.6        0.2209     0          0         
1201050000       72.4       7.6        0.221      0          0         
1201060000       72.5       7.5        0.2211     0          0         
1201070000       72.6       7.4        0.2212     0          0         
1201080000       72.7       7.3        0.2213     0          0         
1201090000       72.8       7.2        0.2214     0          0         
1201100000       72.9       7.1        0.2215     0          0         
1201110000       73         7.3        0.2216     0          0         
1201120000       73.1       9.2        0.2217     0          0         
1201130000       73.2       9.2        0.2218     0          0         
1201140000       73.3       13.2       0.2219     0          0         
1201150000       73.3       15.7       0.222      0          0         
1201160000       73.3       18.1       0.2221     0          0         
1201170000       73.4       23         0.2104     0          0         
1201170100       75.3       6          0.4123     0          0         
1202010000       69.6       6.6        0.2109     0          0         
1203000000       69.8       10.2       0.4152     0          0         
1204000000       69.9       10.1       0.4153     0          0         
1205000000       70         10         0.2195     0          0         
1206000000       70.2       9.8        0.2182     0          0         
1207000000       70.4       9.6        0.2181     0          0         
1208000000       70.4       9.6        0.218      0          0         
1209000000       70.5       9.5        0.2179     0          0         
1210000000       70.6       9.4        0.2108     0          0         
1211000000       70.7       9.4        0.2178     0          0         
1212000000       70.8       9.6        0.2177     0          0         
1213000000       71         9.5        0.2176     0          0         
1214000000       71.1       10.1       0.2175     0          0         
1215000000       71.2       9.7        0.2099     0          0         
1215010000       75.2       7.1        0.2139     0          0         
1215020000       75.3       8.8        0.214      0          0         
1215030000       75.3       10.7       0.2095     0          0         
1215030100       80.3       5.9        0.5368     0          0         
1215030200       80.3       6.2        0.2096     0          0         
1215030300       80.4       7.2        0.2141     0          0         
1215030400       81.4       7.3        0.2144     0          0         
1215030500       83.5       6.4        0.2142     0          0         
1215030600       86.6       5.9        0.2143     0          0         
1215030700       88.3       7          0.2097     0          0         
1215030800       90.3       5.6        0.2166     0          0         
1215030900       90.5       6.1        0.2165     0          0         
1215031000       90.6       5.6        0.2098     0          0         
1215031100       90.7       7          0.2161     0          0         
1215031200       99.9       1.5        0.2162     0          0         
1215031300       100        3          0.2163     0          0         
1215031400       100.1      6          0.2164     0          0         
1216000000       71.3       9.9        0.2138     0          0         
1300000000       70.7       9.3        0.226      0          0         
1301000000       71.1       6.6        0.2259     0          0         
1302000000       71.3       8.7        0.2299     0          0         
1303000000       71.4       8.6        0.23       0          0         
1304000000       71.6       8.4        0.2301     0          0         
1305000000       71.7       7.3        0.2302     0          0         
1306000000       71.8       6.2        0.2258     0          0         
1307000000       72.3       7.7        0.2303     0          0         
1308000000       72.5       7.5        0.2304     0          0         
1309000000       72.6       7.4        0.2305     0          0         
1310000000       72.7       7.3        0.2306     0          0         
1311000000       72.8       7.2        0.2402     0          0         
1312000000       73         7          0.2403     0          0         
1313000000       73.1       6.9        0.2404     0          0         
1314000000       73.2       6.8        0.2405     0          0         
1315000000       73.3       6.7        0.2252     0          0         
1315010000       73.6       6.4        0.2316     0          0         
1315020000       73.8       6.5        0.2317     0          0         
1315030000       74.9       6.5        0.2318     0          0         
1315040000       76.9       7          0.2319     0          0         
1315050000       79.1       6.4        0.232      0          0         
1315060000       82.2       6.5        0.2321     0          0         
1315070000       83.3       7          0.2322     0          0         
1315080000       86.3       6.1        0.2323     0          0         
1315090000       87.4       6.7        0.2324     0          0         
1316000000       74         6          0.2325     0          0         
1317000000       74.2       5.8        0.2326     0          0         
1318000000       74.4       5.6        0.2327     0          0         
1319000000       74.6       5.5        0.2328     0          0         
1320000000       74.8       5.6        0.2264     0          0         
1321000000       75         5.5        0.2329     0          0         
1322000000       75.3       5.6        0.2266     0          0         
1323000000       75.7       5.7        0.233      0          0         
1324000000       76         6          0.2265     0          0         
1400000000       71.4       10.5       0.2251     0          0         
1500000000       99.1       20.9       0.1828     0          0         
1700000000       142.9      6.1        0.4269     0          0         
1701000000       143        7.5        0.2448     0          0         
1702000000       143        6.9        0.2447     0          0         
1703000000       145        5.6        0.2446     0          0         
1704000000       145.2      6.2        0.2436     0          0         
1705000000       147.3      5.6        0.2435     0          0         
1706000000       147.4      6.2        0.2434     0          0         
1707000000       148.5      6.4        0.2445     0          0         
1708000000       152.2      2.1        0.2433     0          0         
1709000000       152.3      3.3        0.2432     0          0         
1710000000       152.4      3.9        0.2431     0          0         
1711000000       152.7      5.6        0.2449     0          0         
1712000000       152.7      6.1        0.245      0          0         
1713000000       158.2      17.2       0.5354     0          0         
1714000000       158.3      17.1       0.5353     0          0         
1715000000       158.4      17         0.1753     0          0         
1716010000       158.6      5.8        0.1768     0          0         
1716020000       159.9      23.7       0.172      0          0         
1716030000       160.6      23         0.1718     0          0         
1716040000       160.7      13.8       0.1721     0          0         
1716050000       160.8      13.6       0.1723     0          0         
1716060000       161        11.1       0.1722     0          0         
1716070000       161.2      6.4        0.1737     0          0         
1900000000       82.6       18.9       0.2457     0          0         
1661000000       125        9          0          0          0         
16               157        0          0          50         0         
18               74         0          0          0          0         
20               85         0          0          50         0         
21               75         0          0          50         0         
23               82         0          0          50         0         
24               74         0          0          0          0         
25               76         0          0          50         0         
26               78         0          0          50         0         
27               74         0          0          50         0         
28               77         0          0          50         0         
29               73         0          0          50         0         
30               84         0          0          500        0         
32               81         0          0          50         0         
33               78.5       0          0          0          0         
35               88         0          0          50         0         
36               168        0          0          50         0         
49               152.5      5.5        0          0          0         
13               71.5       0          0          0          0         

[OUTFALLS]
;;Name           Elevation  Type       Stage Data       Gated    Route To        
;;-------------- ---------- ---------- ---------------- -------- ----------------
10               70.5       FREE                        NO                       

[STORAGE]
;;Name           Elev.    MaxDepth   InitDepth  Shape      Curve Type/Params            SurDepth  Fevap    Psi      Ksat     IMD     
;;-------------- -------- ---------- ----------- ---------- ---------------------------- --------- --------          -------- --------
1                146.5    9          0          FUNCTIONAL 0          0          100      0         0       
2                69.8     10         0          FUNCTIONAL 0          0          100      0         0       
4                70       10         0          FUNCTIONAL 0          0          100      0         0       
15               98       20         0          FUNCTIONAL 0          0          100      0         0       
19               82.3     10         0          FUNCTIONAL 0          0          100      0         0       
5                69.5     10         0          FUNCTIONAL 0          0          100      0         0       
6                67.6     10         0          FUNCTIONAL 0          0          100      0         0       
8                71.3     10         0          FUNCTIONAL 0          0          100      0         0       
3                124.5    9.5        0          FUNCTIONAL 0          0          100      0         0       
11               66       10         0          FUNCTIONAL 0          0          200      0         0       
12               68       10         0          FUNCTIONAL 0          0          200      0         0       
7                72.3     7.7        0          FUNCTIONAL 0          0          100      0         0       
14               71       10         0          FUNCTIONAL 0          0          100      0         0       
9                71.2     10         0          FUNCTIONAL 0          0          100      0         0       
17               73       20         0          FUNCTIONAL 0          0          100      0         0       

[CONDUITS]
;;Name           From Node        To Node          Length     Roughness  InOffset   OutOffset  InitFlow   MaxFlow   
;;-------------- ---------------- ---------------- ---------- ---------- ---------- ---------- ---------- ----------
264              252010000        252000000        26.80540000000 0.013      0          0          0          0         
265              252000000        251000000        96.98250000000 0.013      0          0          0          0         
266              251000000        250000000        30.87750000000 0.013      0          0          0          0         
279              250000000        249000000        101.00800000000 0.013      0          0          0          0         
280              249000000        248000000        46.49900000000 0.013      0          0          0          0         
281              248000000        247000000        96.50100000000 0.013      0          0          0          0         
282              247000000        246000000        46.50100000000 0.013      0          0          0          0         
283              246000000        245000000        46.72080000000 0.013      0          0          0          0         
284              245000000        244000000        46.28310000000 0.013      0          0          0          0         
285              244000000        243000000        64.75950000000 0.013      0          0          0          0         
286              243000000        242000000        53.24890000000 0.013      0          0          0          0         
287              242000000        241000000        68.05240000000 0.013      0          0          0          0         
288              241000000        240000000        51.11340000000 0.013      0          0          0          0         
289              240000000        238000000        58.35440000000 0.013      0          0          0          0         
290              238000000        237000000        52.52600000000 0.013      0          0          0          0         
291              237000000        236000000        37.16370000000 0.013      0          0          0          0         
292              236000000        235000000        171.57200000000 0.013      0          0          0          0         
332              235000000        234000000        66.15010000000 0.013      0          0          0          0         
333              234000000        233000000        41.65730000000 0.013      0          0          0          0         
334              233000000        232000000        31.88150000000 0.013      0          0          0          0         
335              232000000        231000000        43.30990000000 0.013      0          0          0          0         
336              231000000        230000000        46.49600000000 0.013      0          0          0          0         
337              230000000        229000000        46.49570000000 0.013      0          0          0          0         
338              229000000        228000000        46.43130000000 0.013      0          0          0          0         
339              228000000        227000000        37.89450000000 0.013      0          0          0          0         
340              227000000        226000000        61.15290000000 0.013      0          0          0          0         
341              226000000        225000000        18.36170000000 0.013      0          0          0          0         
342              225000000        224000000        56.40450000000 0.013      0          0          0          0         
373              224000000        223000000        90.30950000000 0.013      0          0          0          0         
374              223000000        222000000        106.95400000000 0.013      0          0          0          0         
375              222000000        221000000        22.42500000000 0.013      0          0          0          0         
376              221000000        221000001        53.07200000000 0.013      0          0          0          0         
377              221000001        219000000        99.00410000000 0.013      0          0          0          0         
378              219000000        218000000        105.21300000000 0.013      0          0          0          0         
379              218000000        217000000        32.79930000000 0.013      0          0          0          0         
380              217000000        216000000        96.50970000000 0.013      0          0          0          0         
381              216000000        215000000        35.28970000000 0.013      0          0          0          0         
382              215000000        214000000        52.79480000000 0.013      0          0          0          0         
383              214000000        213000000        91.42950000000 0.013      0          0          0          0         
384              213000000        212000000        57.78080000000 0.013      0          0          0          0         
455              16               252010000        1200       0.013      0          0          0          0         
580              200000000        2                30         0.013      0          0          0          0         
581              18               311000000        500        0.01       0          0          0          0         
583              600000000        6                20         0.013      0          0          0          0         
585              807000100        8                20         0.013      0          0          0          0         
606              212000000        211000000        131.65900000000 0.013      0          0          0          0         
607              211000000        210000000        40.11820000000 0.013      0          0          0          0         
608              210000000        209000000        16.83290000000 0.013      0          0          0          0         
609              209000000        208000000        27.89990000000 0.013      0          0          0          0         
610              208000000        207000000        29.60020000000 0.013      0          0          0          0         
611              207000000        206000000        76.65670000000 0.013      0          0          0          0         
612              206000000        205000000        16.09700000000 0.013      0          0          0          0         
613              205000000        204000000        54.90910000000 0.013      0          0          0          0         
614              204000000        203000000        48.82900000000 0.013      0          0          0          0         
615              203000000        202000000        91.81060000000 0.013      0          0          0          0         
616              202000000        201000000        66.37210000000 0.013      0          0          0          0         
617              201000000        200000000        592.19600000000 0.013      0          0          0          0         
662              311000000        310000000        71.27380000000 0.013      0          0          0          0         
663              310000000        309000000        71.49930000000 0.013      0          0          0          0         
664              309000000        308000000        58.46760000000 0.013      0          0          0          0         
665              308000000        307000000        34.75920000000 0.013      0          0          0          0         
666              307000000        306000000        57.21980000000 0.013      0          0          0          0         