[TITLE]
;;Project Title/Notes

[OPTIONS]
;;Option             Value
FLOW_UNITS           CFS
INFILTRATION         HORTON
FLOW_ROUTING         KINWAVE
LINK_OFFSETS         ELEVATION
MIN_SLOPE            0
ALLOW_PONDING        NO
SKIP_STEADY_STATE    NO

START_DATE           04/27/2017
START_TIME           00:00:00
REPORT_START_DATE    04/27/2017
REPORT_START_TIME    00:00:00
END_DATE             04/27/2017
END_TIME             12:00:00
SWEEP_START          01/01
SWEEP_END            12/31
DRY_DAYS             0
REPORT_STEP          00:20:00
WET_STEP             00:30:00
DRY_STEP             01:00:00
ROUTING_STEP         0:01:00 
RULE_STEP            00:00:00

INERTIAL_DAMPING     PARTIAL
NORMAL_FLOW_LIMITED  BOTH
FORCE_MAIN_EQUATION  D-W
VARIABLE_STEP        0.75
LENGTHENING_STEP     0
MIN_SURFAREA         12.557
MAX_TRIALS           8
HEAD_TOLERANCE       0.005
SYS_FLOW_TOL         5
LAT_FLOW_TOL         5
MINIMUM_STEP         0.5
THREADS              1

[EVAPORATION]
;;Data Source    Parameters
;;-------------- ----------------
CONSTANT         0.0
DRY_ONLY         NO

[JUNCTIONS]
;;Name           Elevation  MaxDepth   InitDepth  SurDepth   Aponded   
;;-------------- ---------- ---------- ---------- ---------- ----------
100000000        151.8      6          0.109      0          0         
101000000        151.7      8.4        0.111      0          0         
101010000        161.2      6          0.11       0          0         
102000000        151.6      11.1       0.114      0          0         
102010000        163.7      6          0.112      0          0         
103000000        151.6      12.4       0.149      0          0         
103010000        165        6          0.115      0          0         
104000000        151.5      13.7       0.15       0          0         
104010000        169.2      6          0.116      0          0         
105000000        151.5      15         0.151      0          0         
105010000        170.5      6          0.117      0          0         
107000000        151.4      20.6       0.152      0          0         
107010000        173        6          0.118      0          0         
108000000        151.4      23.2       0.153      0          0         
109000000        151.3      21.4       0.119      0          0         
110000000        151.3      20.8       0.155      0          0         
110010000        176.1      6          0.12       0          0         
111000000        151.2      23.3       0.156      0          0         
111010000        175.5      6          0.121      0          0         
112000000        151.2      21.5       0.157      0          0         
112010000        173.7      6          0.122      0          0         
113000000        151.1      21         0.158      0          0         
113010000        173.2      6          0.123      0          0         
114000000        151        21.5       0.159      0          0         
115000000        151        22.7       0.16       0          0         
115010000        174.8      6          0.124      0          0         
116000000        150.9      23.3       0.161      0          0         
116010000        175.3      6          0.125      0          0         
117000000        150.8      23.7       0.162      0          0         
117010000        178.6      6          0.126      0          0         
118000000        150.7      26         0.163      0          0         
118010000        177.9      6          0.127      0          0         
119000000        150.7      28.2       0.164      0          0         
119010000        180        6          0.128      0          0         
120000000        150.6      28.6       0.165      0          0         
120010000        183.1      6          0.129      0          0         
121000000        150.5      29.7       0.166      0          0         
121010000        184.2      6          0.13       0          0         
122000000        150.5      31.8       0.167      0          0         
122010000        186.3      6          0.131      0          0         
123000000        150.4      37         0.168      0          0         
123010000        188.4      6          0.132      0          0         
124000000        150.4      39.1       0.169      0          0         
124010000        160.5      6          0.133      0          0         
125000000        150.3      42.4       0.17       0          0         
125010000        156.7      6          0.134      0          0         
126000000        150.2      44.7       0.171      0          0         
126010000        188.9      6          0.135      0          0         
127000000        150.2      46.9       0.173      0          0         
128000000        150.1      46.9       0.172      0          0         
128010000        191        6          0.136      0          0         
129000000        150.1      50.2       0.138      0          0         
129010000        184.3      6          0.137      0          0         
130000000        150        52.3       0.174      0          0         
130010000        186.3      6          0.139      0          0         
131000000        149.9      54.4       0.175      0          0         
131010000        188.3      6          0.14       0          0         
132000000        149.9      56.3       0.176      0          0         
132010000        190.2      6          0.141      0          0         
133000000        149.8      61.5       0.177      0          0         
133010000        192.1      6          0.142      0          0         
134000000        149.8      63.4       0.178      0          0         
134010000        193.9      6          0.143      0          0         
135000000        149.7      65.2       0.179      0          0         
135010000        195.6      6          0.144      0          0         
136000000        149.6      67         0.18       0          0         
136010000        197.3      6          0.145      0          0         
137000000        149.6      67.9       0.181      0          0         
137010000        198.1      6          0.146      0          0         
138000000        149.5      68.7       0.182      0          0         
138010000        207.3      21.2       0.192      0          0         
138010100        232.5      6          0.19       0          0         
138010200        232.5      6          0.191      0          0         
138020000        207.4      19.4       0.189      0          0         
138020100        230.8      6          0.2471     0          0         
138020200        230.8      6          0.247      0          0         
138030000        207.5      18.5       0.188      0          0         
138030100        230        6          0.2469     0          0         
138030200        230        6          0.2468     0          0         
138040000        207.7      15.6       0.187      0          0         
138040100        227.3      6          0.2467     0          0         
138040200        227.3      6          0.2466     0          0         
138050000        207.9      13.6       0.186      0          0         
138050100        225.4      6          0.2465     0          0         
138050200        222        6          0.2464     0          0         
138060000        208        11.6       0.185      0          0         
138060100        223.5      6          0.2463     0          0         
138060200        220.1      6          0.2462     0          0         
138070000        208.1      10.5       0.246      0          0         
138070100        219.2      6          0.2459     0          0         
138070200        222.6      6          0.2461     0          0         
138090000        208.2      9.4        0.184      0          0         
138090100        221.6      6          0.2458     0          0         
138090200        218.2      6          0.113      0          0         
138100000        219        6          0.147      0          0         
139000000        149.4      69.7       0.183      0          0         
139010000        159        6          0.148      0          0         
140000000        149.3      70.6       0.215      0          0         
141000000        149.2      69         0.213      0          0         
141010000        152.2      6          0.214      0          0         
141020000        155.5      6          0.204      0          0         
142000000        149.1      69.8       0.212      0          0         
142010000        156.3      6          0.205      0          0         
143000000        149.01     70.7       0.21       0          0         
143010000        153.7      6          0.206      0          0         
143020000        155.4      6          0.211      0          0         
144000000        148.85     69         0.208      0          0         
144010000        155.1      6          0.207      0          0         
144020000        151.9      6          0.209      0          0         
145000000        148.6      69.8       0.216      0          0         
146000000        148.5      67.3       0.218      0          0         
146010000        150        6          0.219      0          0         
146020000        153.2      6          0.217      0          0         
147000000        148.3      65.6       0.22       0          0         
148000000        148.2      63.2       0.225      0          0         
148010000        151.8      6          0.221      0          0         
149000000        147.6      83.9       0.2451     0          0         
150000000        186.3      7          0.239      0          0         
151000000        186.2      6.8        0.238      0          0         
151010000        199.7      6          0.2481     0          0         
152000000        186.1      9          0.237      0          0         
152010000        199.1      6          0.2479     0          0         
153000000        185.9      8.5        0.236      0          0         
153010000        201.2      6          0.2478     0          0         
154000000        185.8      10.7       0.235      0          0         
154010000        203.6      6          0.2477     0          0         
155000000        185.6      12.9       0.233      0          0         
155010000        205.7      6          0.2476     0          0         
156000000        185.5      15.5       0.234      0          0         
156010000        205        6          0.2475     0          0         
157000000        185.4      14.8       0.232      0          0         
157010000        207        6          0.2474     0          0         
158000000        185.2      17         0.2454     0          0         
158010000        195.2      17         0.2453     0          0         
158010100        209.1      6          0.2473     0          0         
158020000        207.5      19.5       0.2455     0          0         
158020100        208.6      6          0.2472     0          0         
159000000        184.6      20.5       0.23       0          0         
159010000        212.1      6          0.231      0          0         
160000000        182.8      60.7       0.228      0          0         
160010000        216.1      5.5        0.229      0          0         
160010100        225.2      6          0.224      0          0         
160020000        225.4      8.6        0.203      0          0         
160020100        226        5.5        0.2        0          0         
160020101        235.5      6          0.197      0          0         
160020200        226.1      6.1        0.199      0          0         
160020201        232.9      6          0.198      0          0         
160020300        226.1      6.1        0.201      0          0         
160020400        233.9      7.4        0.202      0          0         
160020401        245        6          0.194      0          0         
160020500        235.9      8.4        0.196      0          0         
160020501        248.1      6          0.195      0          0         
160020502        247.9      6          0.193      0          0         
160030000        234.3      12.3       0.103      0          0         
160030100        248.6      6          0.104      0          0         
160030200        252        6          0.102      0          0         
160030300        252        6          0.101      0          0         
160040000        234.6      15.7       0.108      0          0         
160040100        254        6          0.105      0          0         
160040200        257.4      6          0.1        0          0         
160050000        234.8      21.3       0.107      0          0         
160050100        259.8      6          0.106      0          0         
160050200        260.1      6          0.99       0          0         
160060000        234.9      24         0.97       0          0         
160060100        257        8          0.95       0          0         
160060101        269        6          0.94       0          0         
160060200        264.2      7          0.96       0          0         
160060201        274.9      6          0.93       0          0         
160060202        275.2      6          0.92       0          0         
160060300        271.3      6          0.89       0          0         
160060301        281.3      6          0.9        0          0         
160060302        287.7      6          0.91       0          0         
160060400        276.5      6.2        0.87       0          0         
160060401        283.6      6          0.85       0          0         
160060402        287        6          0.82       0          0         
160060500        278.7      7          0.86       0          0         
160060501        289.4      6          0.84       0          0         
160060502        292.8      6          0.81       0          0         
160060700        281.9      6.5        0.88       0          0         
160060701        292.3      6          0.83       0          0         
160060702        295.7      6          0.8        0          0         
160060800        284.9      6.6        0.79       0          0         
160060801        298.5      6          0.78       0          0         
160070000        235.1      23.1       0.98       0          0         
160070100        262.1      6          0.76       0          0         
160070200        265.2      6          0.75       0          0         
160080000        235.3      21.6       0.77       0          0         
160080100        260.9      6          0.74       0          0         
160090000        235.5      20         0.57       0          0         
160090100        256.3      6          0.56       0          0         
160090200        252.4      6.3        0.71       0          0         
160090201        268.1      6          0.5382     0          0         
160090202        268.1      6          0.5383     0          0         
160090300        258.5      6.7        0.68       0          0         
160090301        268.8      6          0.69       0          0         
160090302        269.2      6          0.7        0          0         
160090400        265.6      6.1        0.66       0          0         
160090401        275.3      6          0.65       0          0         
160090402        275.7      6          0.67       0          0         
160090500        271.8      6.3        0.64       0          0         
160090501        282.1      6          0.63       0          0         
160090502        281.8      6          0.62       0          0         
160090600        280        7.8        0.6        0          0         
160090601        291.5      6          0.61       0          0         
160090602        291.8      6          0.248      0          0         
160090603        294.7      6          0.59       0          0         
160090604        298.2      6          0.58       0          0         
160100000        235.6      18.3       0.55       0          0         
160100100        254.6      6          0.54       0          0         
160110000        235.9      15.6       0.73       0          0         
160110100        235.9      8.8        0.72       0          0         
160110101        246        6          0.53       0          0         
160120000        237        17.9       0.52       0          0         
160120100        259.5      6          0.29       0          0         
160120200        237.2      17.1       0.47       0          0         
160120201        258.3      6          0.46       0          0         
160120202        250        7.7        0.45       0          0         
160120300        237.3      15.6       0.48       0          0         
160120301        256.9      6          0.44       0          0         
160120302        248        8.4        0.43       0          0         
160120400        237.5      14         0.49       0          0         
160120401        255.5      6          0.42       0          0         
160120402        249        6          0.41       0          0         
160120500        237.6      12.3       0.4        0          0         
160120501        247        6.5        0.39       0          0         
160120502        253.9      6          0.38       0          0         
160120600        237.7      10.6       0.32       0          0         
160120601        237.8      10.4       0.36       0          0         
160120602        248.7      6          0.37       0          0         
160120700        237.8      8.7        0.35       0          0         
160120701        250.5      6          0.34       0          0         
160120702        240        10.2       0.33       0          0         
160120800        238        6.7        0.51       0          0         
160120801        248.7      6          0.5        0          0         
160130000        255.5      6.1        0.31       0          0         
160130100        266.3      6          0.28       0          0         
160140000        255.8      16.1       0.3        0          0         
160140100        273        6          0.27       0          0         
160140200        276.3      6          0.26       0          0         
160150000        255.9      22.7       0.23       0          0         
160150100        283.1      6          0.24       0          0         
160150200        282.1      6          0.25       0          0         
160160000        256.1      25         0.17       0          0         
160160100        285.5      6          0.16       0          0         
160170000        256.2      24.4       0.22       0          0         
160170100        284.6      6          0.15       0          0         
160170200        281.6      6          0.14       0          0         
160180000        256.3      20.3       0.21       0          0         
160180100        277.1      6          0.13       0          0         
160180200        280.6      6          0.12       0          0         
160190000        256.5      15.4       0.1        0          0         
160190100        276.5      6          0.11       0          0         
160200000        256.6      14.7       0.2        0          0         
160200100        275.3      6          0.9        0          0         
160200200        256.7      18.1       0.8        0          0         
160210000        256.7      16.8       0.18       0          0         
160210100        256.8      16.7       0.7        0          0         
160210200        273.9      6          0.6        0          0         
160220000        256.8      16         0.19       0          0         
160220100        273.2      6          0.5        0          0         
160230000        256.9      14.4       0          0          0         
160230100        274.6      6          0.1        0          0         
160230200        274.6      6          0.2        0          0         
160230300        279        6          0.3        0          0         
160230400        267.2      6          0.4        0          0         
161000000        180        62.3       0.227      0          0         
161010000        217.5      6          0.223      0          0         
162000000        178.3      64.6       0.226      0          0         
162010000        216.9      6          0.222      0          0         
200000000        70         12.7       0.2456     0          0         
201000000        70.2       29.4       0.481      0          0         
201010000        104.6      6          0.2703     0          0         
201100000        72.6       21.2       0.386      0          0         
202000000        70.6       33         0.401      0          0         
202010000        71.6       30.8       0.406      0          0         
202010100        108.3      6          0.2599     0          0         
202020000        71.7       30.7       0.394      0          0         
202020100        104.4      6          0.26       0          0         
202030000        71.7       28.6       0.393      0          0         
202030100        104.4      6          0.2601     0          0         
202040100        102.4      6          0.2628     0          0         
202050000        72         26.3       0.391      0          0         
202050100        102.3      6          0.2627     0          0         
202060000        72.1       26.2       0.39       0          0         
202060100        100.4      6          0.2626     0          0         
202070000        72.2       26.1       0.389      0          0         
202070100        100.3      6          0.2629     0          0         
202080000        72.3       23.9       0.358      0          0         
202080100        93.9       6.3        0.344      0          0         
202080101        104.2      6          0.2625     0          0         
202080200        95.9       6.4        0.345      0          0         
202080201        106.3      6          0.2624     0          0         
202080300        100.2      8.6        0.346      0          0         
202080301        110.6      6          0.2622     0          0         
202080302        112.7      6          0.2623     0          0         
202080400        103.8      7.1        0.347      0          0         
202080401        114.9      6          0.262      0          0         
202080402        115        6          0.2621     0          0         
202080500        106.9      6.3        0.348      0          0         
202080501        117.1      6          0.2619     0          0         
202080600        106.9      8.5        0.35       0          0         
202080601        117.2      6          0.2618     0          0         
202080700        111        6.7        0.349      0          0         
202080701        121.6      6          0.2616     0          0         
202080702        121.8      6          0.2617     0          0         
202090000        72.3       23.8       0.388      0          0         
202090100        100.1      6          0.263      0          0         
202100000        72.5       23.5       0.387      0          0         
202100100        98         6          0.2631     0          0         
202110100        97.8       6          0.2632     0          0         
202120000        72.8       20.8       0.359      0          0         
202120100        93.6       2          0.351      0          0         
202120101        99.7       6          0.2633     0          0         
202120102        99.6       6          0.2634     0          0         
202120200        93.7       6.3        0.475      0          0         
202120201        104        6          0.2635     0          0         
202120300        95.8       6.4        0.352      0          0         
202120301        106.3      6          0.2636     0          0         
202120302        106.3      6          0.2637     0          0         
202120400        97.9       6.6        0.353      0          0         
202120401        110.9      6          0.2638     0          0         
202120402        108.6      6          0.2639     0          0         
202120500        102.5      6.7        0.354      0          0         
202120501        113.2      6          0.264      0          0         
202120600        102.5      6.7        0.356      0          0         
202120601        113.2      6          0.2641     0          0         
202120700        104.6      7          0.357      0          0         
202120701        115.6      6          0.2642     0          0         
202120702        115.5      6          0.2643     0          0         
202120800        105.7      8.3        0.355      0          0         
202120801        117.9      6          0.2644     0          0         
202120802        115.7      6          0.2645     0          0         
202130000        72.9       18.3       0.385      0          0         
202130100        95.2       6          0.266      0          0         
202140000        73         18         0.384      0          0         
202140100        92.9       6          0.2661     0          0         
202150000        73.1       15.6       0.383      0          0         
202150100        94.6       6          0.2659     0          0         
202150200        92.7       6          0.2662     0          0         
202160000        73.2       15         0.366      0          0         
202160100        83.9       6.5        0.367      0          0         
202160101        94.4       6          0.2658     0          0         
202160200        88         6.9        0.368      0          0         
202160201        99.1       6          0.2656     0          0         
202160202        99         6          0.2657     0          0         
202160300        91.1       6.2        0.36       0          0         
202160301        101.4      6          0.2654     0          0         
202160302        101.3      6          0.2655     0          0         
202160400        93.2       9          0.361      0          0         
202160401        106.2      6          0.2652     0          0         
202160402        103.8      6          0.2653     0          0         
202160500        97.3       7.4        0.362      0          0         
202160501        108.7      6          0.2651     0          0         
202160600        97.3       7.4        0.364      0          0         
202160601        108.7      6          0.265      0          0         
202160700        99.9       7.3        0.365      0          0         
202160701        111.2      6          0.2648     0          0         
202160800        103        6.7        0.363      0          0         
202160801        113.7      6          0.2646     0          0         
202160802        113.6      6          0.2647     0          0         
202170000        73.3       12.5       0.369      0          0         
202170100        92         6          0.2663     0          0         
202180000        73.5       11.4       0.378      0          0         
202180100        88.9       6          0.2664     0          0         
202190000        73.7       8.4        0.375      0          0         
202190100        73.8       7          0.472      0          0         
202190101        84.5       6          0.2679     0          0         
202190200        73.9       6.2        0.47       0          0         
202190201        84         6          0.2683     0          0         
202190202        84.4       6          0.2684     0          0         
202190300        74         6          0.471      0          0         
202190301        84         6          0.268      0          0         
202190302        84         6          0.2681     0          0         
202190303        84         6          0.2682     0          0         
202190500        73.7       7.9        0.379      0          0         
202190501        85.7       6          0.2678     0          0         
202190600        73.8       7.9        0.382      0          0         
202190601        84.3       6          0.2677     0          0         
202190700        73.9       6.1        0.38       0          0         
202190701        84.8       6          0.2676     0          0         
202190800        73.9       6.1        0.381      0          0         
202190801        84.1       6          0.2674     0          0         
202190802        84         6          0.2675     0          0         
202200000        89.5       5.5        0.376      0          0         
202200001        90.7       6          0.2665     0          0         
202200002        90.5       6          0.2666     0          0         
202210000        90         6          0.377      0          0         
202210100        93.3       6          0.2667     0          0         
202220000        91.5       5.2        0.371      0          0         
202220100        91.6       0.2        0.19       0          0         
202220101        98.3       6          0.2668     0          0         
202220200        100.9      6          0.267      0          0         
202230000        91.7       7.5        0.373      0          0         